Version 4.1
SHEET 1 880 680
WIRE 160 128 144 128
WIRE 304 128 288 128
WIRE -288 144 -288 112
WIRE -192 144 -192 112
WIRE -96 144 -96 112
WIRE 160 160 144 160
WIRE 160 192 144 192
WIRE 320 192 288 192
WIRE -96 256 -96 224
WIRE 320 256 320 192
WIRE 320 256 -96 256
WIRE -288 272 -288 224
WIRE -192 272 -192 224
WIRE -192 272 -288 272
WIRE -96 272 -96 256
WIRE -96 272 -192 272
WIRE -192 288 -192 272
FLAG -192 288 0
FLAG -288 112 vdd
IOPIN -288 112 In
FLAG -192 112 A
IOPIN -192 112 In
FLAG -96 112 B
IOPIN -96 112 In
FLAG 304 128 xor_out
IOPIN 304 128 Out
FLAG 144 128 A
IOPIN 144 128 In
FLAG 144 160 B
IOPIN 144 160 In
FLAG 144 192 vdd
IOPIN 144 192 In
SYMBOL xor_max4610 224 160 R0
SYMATTR InstName U1
SYMBOL voltage -288 128 R0
WINDOW 123 0 0 Left 0
WINDOW 39 0 0 Left 0
SYMATTR InstName V1
SYMATTR Value 3.3
SYMBOL voltage -192 128 R0
WINDOW 3 -23 209 VLeft 1
WINDOW 123 0 0 Left 0
WINDOW 39 0 0 Left 0
SYMATTR Value PULSE(0 3.3 50u 5u 5u 50u 100u 2)
SYMATTR InstName V2
SYMBOL voltage -96 128 R0
WINDOW 3 -21 237 VLeft 1
WINDOW 123 0 0 Left 0
WINDOW 39 0 0 Left 0
SYMATTR Value PULSE(0 3.3 100u 5u 5u 100u 200u 1)
SYMATTR InstName V3
TEXT -352 376 Left 2 !.inc ltspice_cmdc0de.lib\n.tran 200u
